Version 4
SHEET 1 880 680
SYMBOL Opamps\\AD8542 64 80 R0
SYMATTR InstName U1
SYMBOL Opamps\\AD8542 240 80 R0
SYMATTR InstName U2
SYMBOL Opamps\\AD8542 432 80 R0
SYMATTR InstName U3
SYMBOL Opamps\\AD8542 224 208 R0
SYMATTR InstName U4
