Version 4
SHEET 1 1132 680
WIRE -112 -160 -240 -160
WIRE 192 -160 -112 -160
WIRE 192 -144 192 -160
WIRE -112 -80 -112 -160
WIRE 96 -80 -112 -80
WIRE 464 -80 384 -80
WIRE 464 -48 464 -80
WIRE 96 16 -32 16
WIRE 464 16 384 16
WIRE 464 64 464 16
WIRE 96 112 0 112
WIRE 528 112 384 112
WIRE -240 144 -240 -160
WIRE 0 208 0 112
WIRE 96 208 0 208
WIRE 96 304 0 304
WIRE 432 304 384 304
WIRE 528 304 528 112
WIRE 528 304 512 304
WIRE 688 304 528 304
WIRE 992 304 688 304
WIRE 1056 304 992 304
WIRE 528 320 528 304
WIRE 688 320 688 304
WIRE 0 368 0 304
WIRE 992 368 992 304
WIRE -112 384 -112 -80
WIRE 528 400 528 384
WIRE 528 400 384 400
WIRE 688 400 528 400
WIRE 864 400 688 400
WIRE -112 480 -112 448
WIRE -32 480 -32 16
WIRE -32 480 -112 480
WIRE -240 528 -240 224
WIRE -112 528 -112 480
WIRE 0 528 0 448
WIRE 288 528 288 464
WIRE 688 528 688 480
WIRE 992 528 992 432
FLAG 288 528 0
FLAG 0 528 0
FLAG -112 528 0
FLAG 992 528 0
FLAG 688 528 0
FLAG 464 64 0
FLAG -240 528 0
FLAG 1056 304 A
IOPIN 1056 304 Out
FLAG 864 400 B
IOPIN 864 400 Out
SYMBOL PowerProducts\\LT8640S 240 160 R0
SYMATTR InstName U1
SYMBOL polcap -128 384 R0
WINDOW 3 24 56 Left 2
SYMATTR Value 4.7µ
SYMATTR InstName C1
SYMATTR Description Capacitor
SYMATTR Type cap
SYMATTR SpiceLine V=16 Irms=12m Rser=2.7041 Lser=1.38891n mfg="Würth Elektronik" pn="865250340002 WCAP-ASNP 4x5,5" type="Al electrolytic"
SYMBOL cap 512 320 R0
SYMATTR InstName C2
SYMATTR Value 0.01µ
SYMATTR SpiceLine V=6.3 Irms=255m Rser=0.741113 Lser=0 mfg="KEMET" pn="C0402C103K9RAC" type="X7R"
SYMBOL polcap 976 368 R0
WINDOW 3 24 56 Left 2
SYMATTR Value 100µ
SYMATTR InstName C3
SYMATTR Description Capacitor
SYMATTR Type cap
SYMATTR SpiceLine V=16 Irms=92m Rser=0.362 Lser=20.7208n mfg="Würth Elektronik" pn="865090349007 WCAP-ASLU 8x6,5" type="Al electrolytic"
SYMBOL res -16 352 R0
SYMATTR InstName R4
SYMATTR Value 110K
SYMATTR SpiceLine tol=1 pwr=0.1
SYMBOL res 672 304 R0
SYMATTR InstName R1
SYMATTR Value 1Meg
SYMATTR SpiceLine tol=1 pwr=0.1
SYMBOL res 672 384 R0
SYMATTR InstName R2
SYMATTR Value 412K
SYMATTR SpiceLine tol=1 pwr=0.1
SYMBOL ind 416 320 R270
WINDOW 0 32 56 VTop 2
WINDOW 3 5 56 VBottom 2
SYMATTR InstName L1
SYMATTR Value 6µ
SYMATTR SpiceLine Ipk=9.57 Rser=0.0055 Rpar=565.2 Cpar=0
SYMBOL polcap 448 -48 R0
WINDOW 3 24 56 Left 2
SYMATTR Value 4.7µ
SYMATTR InstName C4
SYMATTR Description Capacitor
SYMATTR Type cap
SYMATTR SpiceLine V=16 Irms=12m Rser=2.7041 Lser=1.38891n mfg="Würth Elektronik" pn="865250340002 WCAP-ASNP 4x5,5" type="Al electrolytic"
SYMBOL voltage -240 128 R0
WINDOW 123 0 0 Left 0
WINDOW 39 0 0 Left 0
SYMATTR InstName V1
SYMATTR Value 12
TEXT -272 552 Left 2 !.tran 1m startup
